<?xml version="1.0" encoding="UTF-8"?>
<!-- generated on 2021-03-27 11:05:45.256559 by $Id$ UNKNOWN
  options: -n saoPaulo.net.xml -e 1 -o saoPaulo.trips.xml
-->
<routes xmlns:xsi="http://www.w3.org/2001/XMLSchema-instance" xsi:noNamespaceSchemaLocation="http://sumo.dlr.de/xsd/routes_file.xsd">
    <trip id="0" depart="0.00" from="197054862" to="37916349#1"/>
</routes>
