<configuration>
    <input>
        <net-file value="saoPaulo.net.xml"/>
        <route-files value="saoPaulo.rou.xml"/>
    </input>
    <time>
        <begin value="0"/>
        <end value="3600"/>
    </time>
</configuration>
